FoamFile 
 { 
 version 2.0; 
 format ascii; 
 class dictionary; 
 object blockMeshDict; 
 } 
 convertToMeters 100;
vertices 
 (
( 0.707107 0.707107 0.000000 )
( 0.707107 -0.707107 0.000000 )
( -0.707107 -0.707107 0.000000 )
( -0.707107 0.707107 0.000000 )
( 0.353512 0.353512 0.000000 )
( 0.353553 -0.353553 0.000000 )
( -0.353553 -0.353553 0.000000 )
( -0.353548 0.353548 0.000000 )
( 0.707107 0.707107 -0.100000 )
( 0.707107 -0.707107 -0.100000 )
( -0.707107 -0.707107 -0.100000 )
( -0.707107 0.707107 -0.100000 )
( 0.353512 0.353512 -0.100000 )
( 0.353553 -0.353553 -0.100000 )
( -0.353553 -0.353553 -0.100000 )
( -0.353548 0.353548 -0.100000 )
);
blocks 
 (
hex ( 0 4 7 3 8 12 15 11 ) (12 12 1) simpleGrading (1 1 1)
hex ( 3 7 6 2 11 15 14 10 ) (12 12 1) simpleGrading (1 1 1)
hex ( 2 6 5 1 10 14 13 9 ) (12 12 1) simpleGrading (1 1 1)
hex ( 1 5 4 0 9 13 12 8 ) (12 12 1) simpleGrading (1 1 1)
hex ( 4 5 6 7 12 13 14 15 ) (12 12 1) simpleGrading (10 10 1)
);
edges 
 (
arc 0 3 (0 1.000000 0)
arc 8 11 (0 1.000000 -0.100000)
arc 3 2 (-1.000000 0 0)
arc 11 10 (-1.000000 0 -0.100000)
arc 2 1 (0 -1.000000 0)
arc 10 9 (0 -1.000000 -0.100000)
arc 1 0 (1.000000 0 0)
arc 9 8 (1.000000 0 -0.100000)
polyLine 5 4 (
(0.353280 -0.354017 0)
(0.353634 -0.353417 0)
(0.353987 -0.352817 0)
(0.354339 -0.352217 0)
(0.354691 -0.351616 0)
(0.355042 -0.351015 0)
(0.355393 -0.350414 0)
(0.355743 -0.349812 0)
(0.356093 -0.349210 0)
(0.356442 -0.348607 0)
(0.356790 -0.348004 0)
(0.357138 -0.347401 0)
(0.357485 -0.346797 0)
(0.357831 -0.346193 0)
(0.358177 -0.345589 0)
(0.358522 -0.344985 0)
(0.358867 -0.344380 0)
(0.359211 -0.343774 0)
(0.359555 -0.343169 0)
(0.359898 -0.342563 0)
(0.360240 -0.341956 0)
(0.360581 -0.341350 0)
(0.360923 -0.340743 0)
(0.361263 -0.340135 0)
(0.361603 -0.339528 0)
(0.361942 -0.338920 0)
(0.362281 -0.338311 0)
(0.362619 -0.337703 0)
(0.362956 -0.337094 0)
(0.363293 -0.336484 0)
(0.363629 -0.335875 0)
(0.363965 -0.335265 0)
(0.364300 -0.334654 0)
(0.364634 -0.334043 0)
(0.364968 -0.333432 0)
(0.365301 -0.332821 0)
(0.365633 -0.332209 0)
(0.365965 -0.331597 0)
(0.366296 -0.330985 0)
(0.366627 -0.330372 0)
(0.366957 -0.329759 0)
(0.367287 -0.329146 0)
(0.367615 -0.328532 0)
(0.367944 -0.327918 0)
(0.368271 -0.327304 0)
(0.368598 -0.326689 0)
(0.368925 -0.326074 0)
(0.369250 -0.325459 0)
(0.369576 -0.324843 0)
(0.369900 -0.324227 0)
(0.370224 -0.323611 0)
(0.370547 -0.322994 0)
(0.370870 -0.322377 0)
(0.371192 -0.321760 0)
(0.371514 -0.321142 0)
(0.371834 -0.320524 0)
(0.372155 -0.319906 0)
(0.372474 -0.319287 0)
(0.372793 -0.318669 0)
(0.373112 -0.318049 0)
(0.373429 -0.317430 0)
(0.373746 -0.316810 0)
(0.374063 -0.316190 0)
(0.374379 -0.315569 0)
(0.374694 -0.314949 0)
(0.375009 -0.314327 0)
(0.375323 -0.313706 0)
(0.375636 -0.313084 0)
(0.375949 -0.312462 0)
(0.376261 -0.311840 0)
(0.376573 -0.311217 0)
(0.376883 -0.310594 0)
(0.377194 -0.309971 0)
(0.377503 -0.309347 0)
(0.377812 -0.308723 0)
(0.378121 -0.308099 0)
(0.378429 -0.307475 0)
(0.378736 -0.306850 0)
(0.379042 -0.306225 0)
(0.379348 -0.305599 0)
(0.379654 -0.304974 0)
(0.379958 -0.304347 0)
(0.380262 -0.303721 0)
(0.380566 -0.303094 0)
(0.380868 -0.302467 0)
(0.381171 -0.301840 0)
(0.381472 -0.301213 0)
(0.381773 -0.300585 0)
(0.382073 -0.299957 0)
(0.382373 -0.299328 0)
(0.382672 -0.298699 0)
(0.382970 -0.298070 0)
(0.383268 -0.297441 0)
(0.383565 -0.296811 0)
(0.383862 -0.296181 0)
(0.384158 -0.295551 0)
(0.384453 -0.294920 0)
(0.384747 -0.294290 0)
(0.385041 -0.293658 0)
(0.385335 -0.293027 0)
(0.385627 -0.292395 0)
(0.385920 -0.291763 0)
(0.386211 -0.291131 0)
(0.386502 -0.290498 0)
(0.386792 -0.289865 0)
(0.387081 -0.289232 0)
(0.387370 -0.288599 0)
(0.387659 -0.287965 0)
(0.387946 -0.287331 0)
(0.388233 -0.286697 0)
(0.388520 -0.286062 0)
(0.388805 -0.285427 0)
(0.389091 -0.284792 0)
(0.389375 -0.284156 0)
(0.389659 -0.283521 0)
(0.389942 -0.282885 0)
(0.390225 -0.282248 0)
(0.390507 -0.281612 0)
(0.390788 -0.280975 0)
(0.391069 -0.280338 0)
(0.391349 -0.279700 0)
(0.391628 -0.279062 0)
(0.391907 -0.278424 0)
(0.392185 -0.277786 0)
(0.392462 -0.277147 0)
(0.392739 -0.276509 0)
(0.393015 -0.275870 0)
(0.393291 -0.275230 0)
(0.393566 -0.274590 0)
(0.393840 -0.273950 0)
(0.394114 -0.273310 0)
(0.394387 -0.272670 0)
(0.394659 -0.272029 0)
(0.394931 -0.271388 0)
(0.395202 -0.270747 0)
(0.395472 -0.270105 0)
(0.395742 -0.269463 0)
(0.396011 -0.268821 0)
(0.396280 -0.268179 0)
(0.396547 -0.267536 0)
(0.396815 -0.266893 0)
(0.397081 -0.266250 0)
(0.397347 -0.265606 0)
(0.397612 -0.264963 0)
(0.397877 -0.264319 0)
(0.398141 -0.263674 0)
(0.398404 -0.263030 0)
(0.398667 -0.262385 0)
(0.398929 -0.261740 0)
(0.399191 -0.261095 0)
(0.399451 -0.260449 0)
(0.399712 -0.259803 0)
(0.399971 -0.259157 0)
(0.400230 -0.258511 0)
(0.400488 -0.257864 0)
(0.400746 -0.257217 0)
(0.401002 -0.256570 0)
(0.401259 -0.255923 0)
(0.401514 -0.255275 0)
(0.401769 -0.254627 0)
(0.402024 -0.253979 0)
(0.402277 -0.253331 0)
(0.402530 -0.252682 0)
(0.402783 -0.252033 0)
(0.403034 -0.251384 0)
(0.403285 -0.250735 0)
(0.403536 -0.250085 0)
(0.403786 -0.249435 0)
(0.404035 -0.248785 0)
(0.404283 -0.248135 0)
(0.404531 -0.247484 0)
(0.404778 -0.246833 0)
(0.405025 -0.246182 0)
(0.405270 -0.245530 0)
(0.405516 -0.244879 0)
(0.405760 -0.244227 0)
(0.406004 -0.243575 0)
(0.406247 -0.242922 0)
(0.406490 -0.242270 0)
(0.406732 -0.241617 0)
(0.406973 -0.240964 0)
(0.407214 -0.240310 0)
(0.407454 -0.239657 0)
(0.407693 -0.239003 0)
(0.407932 -0.238349 0)
(0.408170 -0.237695 0)
(0.408407 -0.237040 0)
(0.408644 -0.236385 0)
(0.408880 -0.235730 0)
(0.409115 -0.235075 0)
(0.409350 -0.234420 0)
(0.409584 -0.233764 0)
(0.409818 -0.233108 0)
(0.410050 -0.232452 0)
(0.410283 -0.231795 0)
(0.410514 -0.231139 0)
(0.410745 -0.230482 0)
(0.410975 -0.229825 0)
(0.411204 -0.229167 0)
(0.411433 -0.228510 0)
(0.411661 -0.227852 0)
(0.411889 -0.227194 0)
(0.412116 -0.226536 0)
(0.412342 -0.225877 0)
(0.412568 -0.225219 0)
(0.412793 -0.224560 0)
(0.413017 -0.223900 0)
(0.413240 -0.223241 0)
(0.413463 -0.222582 0)
(0.413685 -0.221922 0)
(0.413907 -0.221262 0)
(0.414128 -0.220601 0)
(0.414348 -0.219941 0)
(0.414568 -0.219280 0)
(0.414787 -0.218619 0)
(0.415005 -0.217958 0)
(0.415223 -0.217297 0)
(0.415440 -0.216635 0)
(0.415656 -0.215973 0)
(0.415872 -0.215311 0)
(0.416087 -0.214649 0)
(0.416301 -0.213987 0)
(0.416515 -0.213324 0)
(0.416728 -0.212661 0)
(0.416940 -0.211998 0)
(0.417152 -0.211335 0)
(0.417363 -0.210671 0)
(0.417573 -0.210008 0)
(0.417783 -0.209344 0)
(0.417992 -0.208679 0)
(0.418200 -0.208015 0)
(0.418408 -0.207351 0)
(0.418615 -0.206686 0)
(0.418821 -0.206021 0)
(0.419027 -0.205356 0)
(0.419232 -0.204690 0)
(0.419436 -0.204025 0)
(0.419640 -0.203359 0)
(0.419843 -0.202693 0)
(0.420045 -0.202027 0)
(0.420247 -0.201360 0)
(0.420448 -0.200694 0)
(0.420648 -0.200027 0)
(0.420848 -0.199360 0)
(0.421047 -0.198693 0)
(0.421245 -0.198025 0)
(0.421443 -0.197358 0)
(0.421640 -0.196690 0)
(0.421836 -0.196022 0)
(0.422032 -0.195354 0)
(0.422227 -0.194685 0)
(0.422421 -0.194017 0)
(0.422615 -0.193348 0)
(0.422808 -0.192679 0)
(0.423001 -0.192010 0)
(0.423192 -0.191341 0)
(0.423383 -0.190671 0)
(0.423574 -0.190001 0)
(0.423763 -0.189331 0)
(0.423952 -0.188661 0)
(0.424141 -0.187991 0)
(0.424328 -0.187321 0)
(0.424515 -0.186650 0)
(0.424701 -0.185979 0)
(0.424887 -0.185308 0)
(0.425072 -0.184637 0)
(0.425256 -0.183965 0)
(0.425440 -0.183294 0)
(0.425623 -0.182622 0)
(0.425805 -0.181950 0)
(0.425987 -0.181278 0)
(0.426168 -0.180605 0)
(0.426348 -0.179933 0)
(0.426528 -0.179260 0)
(0.426707 -0.178587 0)
(0.426885 -0.177914 0)
(0.427062 -0.177241 0)
(0.427239 -0.176568 0)
(0.427416 -0.175894 0)
(0.427591 -0.175220 0)
(0.427766 -0.174546 0)
(0.427940 -0.173872 0)
(0.428114 -0.173198 0)
(0.428287 -0.172524 0)
(0.428459 -0.171849 0)
(0.428630 -0.171174 0)
(0.428801 -0.170499 0)
(0.428971 -0.169824 0)
(0.429141 -0.169149 0)
(0.429310 -0.168473 0)
(0.429478 -0.167798 0)
(0.429645 -0.167122 0)
(0.429812 -0.166446 0)
(0.429978 -0.165770 0)
(0.430144 -0.165093 0)
(0.430308 -0.164417 0)
(0.430472 -0.163740 0)
(0.430636 -0.163064 0)
(0.430799 -0.162387 0)
(0.430961 -0.161709 0)
(0.431122 -0.161032 0)
(0.431283 -0.160355 0)
(0.431443 -0.159677 0)
(0.431602 -0.158999 0)
(0.431761 -0.158321 0)
(0.431919 -0.157643 0)
(0.432076 -0.156965 0)
(0.432233 -0.156287 0)
(0.432388 -0.155608 0)
(0.432544 -0.154929 0)
(0.432698 -0.154250 0)
(0.432852 -0.153571 0)
(0.433005 -0.152892 0)
(0.433158 -0.152213 0)
(0.433310 -0.151533 0)
(0.433461 -0.150854 0)
(0.433612 -0.150174 0)
(0.433761 -0.149494 0)
(0.433911 -0.148814 0)
(0.434059 -0.148134 0)
(0.434207 -0.147453 0)
(0.434354 -0.146773 0)
(0.434500 -0.146092 0)
(0.434646 -0.145411 0)
(0.434791 -0.144730 0)
(0.434936 -0.144049 0)
(0.435079 -0.143368 0)
(0.435222 -0.142687 0)
(0.435365 -0.142005 0)
(0.435506 -0.141323 0)
(0.435647 -0.140642 0)
(0.435788 -0.139960 0)
(0.435927 -0.139277 0)
(0.436066 -0.138595 0)
(0.436204 -0.137913 0)
(0.436342 -0.137230 0)
(0.436479 -0.136548 0)
(0.436615 -0.135865 0)
(0.436751 -0.135182 0)
(0.436886 -0.134499 0)
(0.437020 -0.133816 0)
(0.437153 -0.133132 0)
(0.437286 -0.132449 0)
(0.437418 -0.131765 0)
(0.437549 -0.131082 0)
(0.437680 -0.130398 0)
(0.437810 -0.129714 0)
(0.437940 -0.129030 0)
(0.438068 -0.128345 0)
(0.438196 -0.127661 0)
(0.438324 -0.126976 0)
(0.438450 -0.126292 0)
(0.438576 -0.125607 0)
(0.438701 -0.124922 0)
(0.438826 -0.124237 0)
(0.438950 -0.123552 0)
(0.439073 -0.122867 0)
(0.439196 -0.122181 0)
(0.439318 -0.121496 0)
(0.439439 -0.120810 0)
(0.439559 -0.120124 0)
(0.439679 -0.119439 0)
(0.439798 -0.118753 0)
(0.439916 -0.118066 0)
(0.440034 -0.117380 0)
(0.440151 -0.116694 0)
(0.440268 -0.116007 0)
(0.440383 -0.115321 0)
(0.440498 -0.114634 0)
(0.440612 -0.113947 0)
(0.440726 -0.113260 0)
(0.440839 -0.112573 0)
(0.440951 -0.111886 0)
(0.441063 -0.111199 0)
(0.441174 -0.110512 0)
(0.441284 -0.109824 0)
(0.441393 -0.109137 0)
(0.441502 -0.108449 0)
(0.441610 -0.107761 0)
(0.441718 -0.107073 0)
(0.441824 -0.106385 0)
(0.441930 -0.105697 0)
(0.442036 -0.105009 0)
(0.442140 -0.104320 0)
(0.442244 -0.103632 0)
(0.442348 -0.102943 0)
(0.442450 -0.102255 0)
(0.442552 -0.101566 0)
(0.442653 -0.100877 0)
(0.442754 -0.100188 0)
(0.442854 -0.099499 0)
(0.442953 -0.098810 0)
(0.443051 -0.098121 0)
(0.443149 -0.097431 0)
(0.443246 -0.096742 0)
(0.443343 -0.096052 0)
(0.443438 -0.095363 0)
(0.443533 -0.094673 0)
(0.443628 -0.093983 0)
(0.443721 -0.093293 0)
(0.443814 -0.092603 0)
(0.443907 -0.091913 0)
(0.443998 -0.091223 0)
(0.444089 -0.090533 0)
(0.444179 -0.089842 0)
(0.444269 -0.089152 0)
(0.444357 -0.088461 0)
(0.444446 -0.087771 0)
(0.444533 -0.087080 0)
(0.444620 -0.086389 0)
(0.444706 -0.085698 0)
(0.444791 -0.085007 0)
(0.444876 -0.084316 0)
(0.444960 -0.083625 0)
(0.445043 -0.082934 0)
(0.445126 -0.082242 0)
(0.445208 -0.081551 0)
(0.445289 -0.080859 0)
(0.445369 -0.080168 0)
(0.445449 -0.079476 0)
(0.445528 -0.078784 0)
(0.445607 -0.078093 0)
(0.445684 -0.077401 0)
(0.445761 -0.076709 0)
(0.445838 -0.076017 0)
(0.445913 -0.075325 0)
(0.445988 -0.074632 0)
(0.446063 -0.073940 0)
(0.446136 -0.073248 0)
(0.446209 -0.072555 0)
(0.446281 -0.071863 0)
(0.446353 -0.071170 0)
(0.446424 -0.070478 0)
(0.446494 -0.069785 0)
(0.446563 -0.069092 0)
(0.446632 -0.068399 0)
(0.446700 -0.067706 0)
(0.446768 -0.067013 0)
(0.446834 -0.066320 0)
(0.446900 -0.065627 0)
(0.446965 -0.064934 0)
(0.447030 -0.064241 0)
(0.447094 -0.063547 0)
(0.447157 -0.062854 0)
(0.447220 -0.062161 0)
(0.447281 -0.061467 0)
(0.447343 -0.060774 0)
(0.447403 -0.060080 0)
(0.447463 -0.059386 0)
(0.447522 -0.058693 0)
(0.447580 -0.057999 0)
(0.447638 -0.057305 0)
(0.447695 -0.056611 0)
(0.447751 -0.055917 0)
(0.447807 -0.055223 0)
(0.447861 -0.054529 0)
(0.447916 -0.053835 0)
(0.447969 -0.053141 0)
(0.448022 -0.052446 0)
(0.448074 -0.051752 0)
(0.448125 -0.051058 0)
(0.448176 -0.050363 0)
(0.448226 -0.049669 0)
(0.448275 -0.048974 0)
(0.448324 -0.048280 0)
(0.448372 -0.047585 0)
(0.448419 -0.046890 0)
(0.448466 -0.046196 0)
(0.448512 -0.045501 0)
(0.448557 -0.044806 0)
(0.448601 -0.044111 0)
(0.448645 -0.043417 0)
(0.448688 -0.042722 0)
(0.448730 -0.042027 0)
(0.448772 -0.041332 0)
(0.448813 -0.040637 0)
(0.448853 -0.039942 0)
(0.448893 -0.039246 0)
(0.448932 -0.038551 0)
(0.448970 -0.037856 0)
(0.449008 -0.037161 0)
(0.449044 -0.036466 0)
(0.449081 -0.035770 0)
(0.449116 -0.035075 0)
(0.449151 -0.034379 0)
(0.449185 -0.033684 0)
(0.449218 -0.032989 0)
(0.449251 -0.032293 0)
(0.449283 -0.031598 0)
(0.449314 -0.030902 0)
(0.449344 -0.030206 0)
(0.449374 -0.029511 0)
(0.449403 -0.028815 0)
(0.449432 -0.028120 0)
(0.449460 -0.027424 0)
(0.449487 -0.026728 0)
(0.449513 -0.026032 0)
(0.449539 -0.025337 0)
(0.449564 -0.024641 0)
(0.449588 -0.023945 0)
(0.449612 -0.023249 0)
(0.449635 -0.022553 0)
(0.449657 -0.021857 0)
(0.449678 -0.021161 0)
(0.449699 -0.020466 0)
(0.449719 -0.019770 0)
(0.449739 -0.019074 0)
(0.449757 -0.018378 0)
(0.449775 -0.017682 0)
(0.449793 -0.016986 0)
(0.449809 -0.016289 0)
(0.449825 -0.015593 0)
(0.449841 -0.014897 0)
(0.449855 -0.014201 0)
(0.449869 -0.013505 0)
(0.449882 -0.012809 0)
(0.449895 -0.012113 0)
(0.449906 -0.011417 0)
(0.449917 -0.010721 0)
(0.449928 -0.010024 0)
(0.449938 -0.009328 0)
(0.449946 -0.008632 0)
(0.449955 -0.007936 0)
(0.449962 -0.007240 0)
(0.449969 -0.006543 0)
(0.449975 -0.005847 0)
(0.449981 -0.005151 0)
(0.449986 -0.004455 0)
(0.449990 -0.003758 0)
(0.449993 -0.003062 0)
(0.449996 -0.002366 0)
(0.449998 -0.001670 0)
(0.449999 -0.000973 0)
(0.450000 -0.000277 0)
(0.450000 0.000000 0)
(0.450000 0.000696 0)
(0.449999 0.001392 0)
(0.449997 0.002089 0)
(0.449994 0.002785 0)
(0.449991 0.003481 0)
(0.449987 0.004177 0)
(0.449983 0.004874 0)
(0.449978 0.005570 0)
(0.449972 0.006266 0)
(0.449965 0.006962 0)
(0.449958 0.007659 0)
(0.449950 0.008355 0)
(0.449941 0.009051 0)
(0.449932 0.009747 0)
(0.449922 0.010443 0)
(0.449911 0.011140 0)
(0.449899 0.011836 0)
(0.449887 0.012532 0)
(0.449874 0.013228 0)
(0.449861 0.013924 0)
(0.449846 0.014620 0)
(0.449832 0.015316 0)
(0.449816 0.016012 0)
(0.449799 0.016708 0)
(0.449782 0.017404 0)
(0.449765 0.018100 0)
(0.449746 0.018796 0)
(0.449727 0.019492 0)
(0.449707 0.020188 0)
(0.449687 0.020884 0)
(0.449665 0.021580 0)
(0.449644 0.022276 0)
(0.449621 0.022972 0)
(0.449598 0.023668 0)
(0.449574 0.024364 0)
(0.449549 0.025060 0)
(0.449523 0.025755 0)
(0.449497 0.026451 0)
(0.449471 0.027147 0)
(0.449443 0.027843 0)
(0.449415 0.028538 0)
(0.449386 0.029234 0)
(0.449356 0.029930 0)
(0.449326 0.030625 0)
(0.449295 0.031321 0)
(0.449263 0.032016 0)
(0.449231 0.032712 0)
(0.449198 0.033407 0)
(0.449164 0.034103 0)
(0.449130 0.034798 0)
(0.449095 0.035493 0)
(0.449059 0.036189 0)
(0.449022 0.036884 0)
(0.448985 0.037579 0)
(0.448947 0.038274 0)
(0.448909 0.038970 0)
(0.448869 0.039665 0)
(0.448829 0.040360 0)
(0.448789 0.041055 0)
(0.448747 0.041750 0)
(0.448705 0.042445 0)
(0.448662 0.043140 0)
(0.448619 0.043835 0)
(0.448575 0.044530 0)
(0.448530 0.045224 0)
(0.448484 0.045919 0)
(0.448438 0.046614 0)
(0.448391 0.047309 0)
(0.448343 0.048003 0)
(0.448295 0.048698 0)
(0.448246 0.049392 0)
(0.448196 0.050087 0)
(0.448146 0.050781 0)
(0.448095 0.051476 0)
(0.448043 0.052170 0)
(0.447990 0.052864 0)
(0.447937 0.053558 0)
(0.447883 0.054252 0)
(0.447828 0.054947 0)
(0.447773 0.055641 0)
(0.447717 0.056335 0)
(0.447661 0.057029 0)
(0.447603 0.057722 0)
(0.447545 0.058416 0)
(0.447486 0.059110 0)
(0.447427 0.059804 0)
(0.447367 0.060497 0)
(0.447306 0.061191 0)
(0.447244 0.061884 0)
(0.447182 0.062578 0)
(0.447119 0.063271 0)
(0.447056 0.063965 0)
(0.446991 0.064658 0)
(0.446926 0.065351 0)
(0.446861 0.066044 0)
(0.446794 0.066737 0)
(0.446727 0.067430 0)
(0.446659 0.068123 0)
(0.446591 0.068816 0)
(0.446522 0.069509 0)
(0.446452 0.070202 0)
(0.446381 0.070894 0)
(0.446310 0.071587 0)
(0.446238 0.072280 0)
(0.446165 0.072972 0)
(0.446092 0.073664 0)
(0.446018 0.074357 0)
(0.445943 0.075049 0)
(0.445868 0.075741 0)
(0.445792 0.076433 0)
(0.445715 0.077125 0)
(0.445638 0.077817 0)
(0.445560 0.078509 0)
(0.445481 0.079201 0)
(0.445401 0.079892 0)
(0.445321 0.080584 0)
(0.445240 0.081276 0)
(0.445158 0.081967 0)
(0.445076 0.082658 0)
(0.444993 0.083350 0)
(0.444909 0.084041 0)
(0.444825 0.084732 0)
(0.444740 0.085423 0)
(0.444654 0.086114 0)
(0.444568 0.086805 0)
(0.444480 0.087496 0)
(0.444393 0.088186 0)
(0.444304 0.088877 0)
(0.444215 0.089567 0)
(0.444125 0.090258 0)
(0.444034 0.090948 0)
(0.443943 0.091638 0)
(0.443851 0.092329 0)
(0.443758 0.093019 0)
(0.443665 0.093709 0)
(0.443571 0.094398 0)
(0.443476 0.095088 0)
(0.443381 0.095778 0)
(0.443285 0.096467 0)
(0.443188 0.097157 0)
(0.443090 0.097846 0)
(0.442992 0.098536 0)
(0.442893 0.099225 0)
(0.442794 0.099914 0)
(0.442693 0.100603 0)
(0.442593 0.101292 0)
(0.442491 0.101981 0)
(0.442389 0.102669 0)
(0.442286 0.103358 0)
(0.442182 0.104046 0)
(0.442077 0.104735 0)
(0.441972 0.105423 0)
(0.441867 0.106111 0)
(0.441760 0.106799 0)
(0.441653 0.107487 0)
(0.441545 0.108175 0)
(0.441437 0.108863 0)
(0.441327 0.109550 0)
(0.441218 0.110238 0)
(0.441107 0.110925 0)
(0.440996 0.111613 0)
(0.440884 0.112300 0)
(0.440771 0.112987 0)
(0.440658 0.113674 0)
(0.440544 0.114361 0)
(0.440429 0.115047 0)
(0.440314 0.115734 0)
(0.440198 0.116421 0)
(0.440081 0.117107 0)
(0.439963 0.117793 0)
(0.439845 0.118479 0)
(0.439726 0.119165 0)
(0.439607 0.119851 0)
(0.439487 0.120537 0)
(0.439366 0.121223 0)
(0.439244 0.121908 0)
(0.439122 0.122594 0)
(0.438999 0.123279 0)
(0.438875 0.123964 0)
(0.438751 0.124649 0)
(0.438626 0.125334 0)
(0.438500 0.126019 0)
(0.438374 0.126704 0)
(0.438247 0.127388 0)
(0.438119 0.128073 0)
(0.437991 0.128757 0)
(0.437862 0.129441 0)
(0.437732 0.130125 0)
(0.437602 0.130809 0)
(0.437470 0.131493 0)
(0.437339 0.132177 0)
(0.437206 0.132860 0)
(0.437073 0.133544 0)
(0.436939 0.134227 0)
(0.436804 0.134910 0)
(0.436669 0.135593 0)
(0.436533 0.136276 0)
(0.436397 0.136959 0)
(0.436259 0.137641 0)
(0.436121 0.138324 0)
(0.435983 0.139006 0)
(0.435843 0.139688 0)
(0.435703 0.140370 0)
(0.435563 0.141052 0)
(0.435421 0.141734 0)
(0.435279 0.142415 0)
(0.435136 0.143097 0)
(0.434993 0.143778 0)
(0.434849 0.144459 0)
(0.434704 0.145140 0)
(0.434559 0.145821 0)
(0.434412 0.146502 0)
(0.434266 0.147182 0)
(0.434118 0.147863 0)
(0.433970 0.148543 0)
(0.433821 0.149223 0)
(0.433671 0.149903 0)
(0.433521 0.150583 0)
(0.433370 0.151263 0)
(0.433219 0.151942 0)
(0.433066 0.152622 0)
(0.432913 0.153301 0)
(0.432760 0.153980 0)
(0.432605 0.154659 0)
(0.432450 0.155338 0)
(0.432295 0.156016 0)
(0.432138 0.156695 0)
(0.431981 0.157373 0)
(0.431824 0.158051 0)
(0.431665 0.158729 0)
(0.431506 0.159407 0)
(0.431346 0.160085 0)
(0.431186 0.160762 0)
(0.431025 0.161440 0)
(0.430863 0.162117 0)
(0.430701 0.162794 0)
(0.430538 0.163471 0)
(0.430374 0.164148 0)
(0.430209 0.164824 0)
(0.430044 0.165501 0)
(0.429878 0.166177 0)
(0.429712 0.166853 0)
(0.429545 0.167529 0)
(0.429377 0.168204 0)
(0.429208 0.168880 0)
(0.429039 0.169555 0)
(0.428869 0.170230 0)
(0.428698 0.170906 0)
(0.428527 0.171580 0)
(0.428355 0.172255 0)
(0.428183 0.172930 0)
(0.428009 0.173604 0)
(0.427835 0.174278 0)
(0.427661 0.174952 0)
(0.427486 0.175626 0)
(0.427310 0.176300 0)
(0.427133 0.176973 0)
(0.426956 0.177646 0)
(0.426778 0.178319 0)
(0.426599 0.178992 0)
(0.426420 0.179665 0)
(0.426240 0.180338 0)
(0.426059 0.181010 0)
(0.425878 0.181682 0)
(0.425696 0.182354 0)
(0.425513 0.183026 0)
(0.425330 0.183698 0)
(0.425146 0.184369 0)
(0.424961 0.185041 0)
(0.424775 0.185712 0)
(0.424589 0.186383 0)
(0.424403 0.187054 0)
(0.424215 0.187724 0)
(0.424027 0.188394 0)
(0.423839 0.189065 0)
(0.423649 0.189735 0)
(0.423459 0.190404 0)
(0.423268 0.191074 0)
(0.423077 0.191743 0)
(0.422885 0.192413 0)
(0.422692 0.193082 0)
(0.422499 0.193751 0)
(0.422305 0.194419 0)
(0.422110 0.195088 0)
(0.421914 0.195756 0)
(0.421718 0.196424 0)
(0.421522 0.197092 0)
(0.421324 0.197760 0)
(0.421126 0.198427 0)
(0.420927 0.199094 0)
(0.420728 0.199761 0)
(0.420528 0.200428 0)
(0.420327 0.201095 0)
(0.420126 0.201761 0)
(0.419923 0.202428 0)
(0.419721 0.203094 0)
(0.419517 0.203760 0)
(0.419313 0.204425 0)
(0.419108 0.205091 0)
(0.418903 0.205756 0)
(0.418697 0.206421 0)
(0.418490 0.207086 0)
(0.418283 0.207751 0)
(0.418075 0.208415 0)
(0.417866 0.209079 0)
(0.417657 0.209743 0)
(0.417446 0.210407 0)
(0.417236 0.211071 0)
(0.417024 0.211734 0)
(0.416812 0.212397 0)
(0.416600 0.213060 0)
(0.416386 0.213723 0)
(0.416172 0.214385 0)
(0.415957 0.215048 0)
(0.415742 0.215710 0)
(0.415526 0.216372 0)
(0.415309 0.217033 0)
(0.415092 0.217695 0)
(0.414874 0.218356 0)
(0.414655 0.219017 0)
(0.414436 0.219678 0)
(0.414216 0.220338 0)
(0.413995 0.220999 0)
(0.413774 0.221659 0)
(0.413552 0.222319 0)
(0.413329 0.222979 0)
(0.413106 0.223638 0)
(0.412882 0.224297 0)
(0.412657 0.224956 0)
(0.412432 0.225615 0)
(0.412206 0.226274 0)
(0.411979 0.226932 0)
(0.411752 0.227590 0)
(0.411524 0.228248 0)
(0.411296 0.228906 0)
(0.411066 0.229563 0)
(0.410837 0.230220 0)
(0.410606 0.230877 0)
(0.410375 0.231534 0)
(0.410143 0.232190 0)
(0.409910 0.232847 0)
(0.409677 0.233503 0)
(0.409443 0.234159 0)
(0.409209 0.234814 0)
(0.408974 0.235470 0)
(0.408738 0.236125 0)
(0.408502 0.236779 0)
(0.408264 0.237434 0)
(0.408027 0.238089 0)
(0.407788 0.238743 0)
(0.407549 0.239397 0)
(0.407309 0.240050 0)
(0.407069 0.240704 0)
(0.406828 0.241357 0)
(0.406586 0.242010 0)
(0.406344 0.242663 0)
(0.406101 0.243315 0)
(0.405857 0.243967 0)
(0.405613 0.244619 0)
(0.405368 0.245271 0)
(0.405123 0.245923 0)
(0.404876 0.246574 0)
(0.404629 0.247225 0)
(0.404382 0.247876 0)
(0.404134 0.248526 0)
(0.403885 0.249176 0)
(0.403635 0.249826 0)
(0.403385 0.250476 0)
(0.403134 0.251126 0)
(0.402883 0.251775 0)
(0.402631 0.252424 0)
(0.402378 0.253073 0)
(0.402125 0.253721 0)
(0.401871 0.254369 0)
(0.401616 0.255017 0)
(0.401361 0.255665 0)
(0.401105 0.256313 0)
(0.400848 0.256960 0)
(0.400591 0.257607 0)
(0.400333 0.258253 0)
(0.400074 0.258900 0)
(0.399815 0.259546 0)
(0.399555 0.260192 0)
(0.399295 0.260838 0)
(0.399033 0.261483 0)
(0.398772 0.262128 0)
(0.398509 0.262773 0)
(0.398246 0.263418 0)
(0.397982 0.264062 0)
(0.397718 0.264706 0)
(0.397453 0.265350 0)
(0.397187 0.265994 0)
(0.396921 0.266637 0)
(0.396654 0.267280 0)
(0.396386 0.267923 0)
(0.396118 0.268565 0)
(0.395849 0.269208 0)
(0.395580 0.269849 0)
(0.395310 0.270491 0)
(0.395039 0.271133 0)
(0.394767 0.271774 0)
(0.394495 0.272415 0)
(0.394222 0.273055 0)
(0.393949 0.273696 0)
(0.393675 0.274336 0)
(0.393400 0.274975 0)
(0.393125 0.275615 0)
(0.392849 0.276254 0)
(0.392573 0.276893 0)
(0.392295 0.277532 0)
(0.392018 0.278170 0)
(0.391739 0.278808 0)
(0.391460 0.279446 0)
(0.391180 0.280084 0)
(0.390900 0.280721 0)
(0.390619 0.281358 0)
(0.390337 0.281995 0)
(0.390055 0.282631 0)
(0.389772 0.283267 0)
(0.389488 0.283903 0)
(0.389204 0.284539 0)
(0.388919 0.285174 0)
(0.388634 0.285809 0)
(0.388347 0.286444 0)
(0.388061 0.287078 0)
(0.387773 0.287713 0)
(0.387485 0.288346 0)
(0.387197 0.288980 0)
(0.386907 0.289613 0)
(0.386617 0.290246 0)
(0.386327 0.290879 0)
(0.386036 0.291512 0)
(0.385744 0.292144 0)
(0.385451 0.292776 0)
(0.385158 0.293407 0)
(0.384865 0.294038 0)
(0.384570 0.294669 0)
(0.384275 0.295300 0)
(0.383980 0.295930 0)
(0.383683 0.296560 0)
(0.383386 0.297190 0)
(0.383089 0.297820 0)
(0.382791 0.298449 0)
(0.382492 0.299078 0)
(0.382193 0.299706 0)
(0.381893 0.300335 0)
(0.381592 0.300963 0)
(0.381291 0.301590 0)
(0.380989 0.302218 0)
(0.380686 0.302845 0)
(0.380383 0.303472 0)
(0.380079 0.304098 0)
(0.379775 0.304724 0)
(0.379470 0.305350 0)
(0.379164 0.305976 0)
(0.378858 0.306601 0)
(0.378551 0.307226 0)
(0.378243 0.307851 0)
(0.377935 0.308475 0)
(0.377627 0.309099 0)
(0.377317 0.309723 0)
(0.377007 0.310346 0)
(0.376696 0.310969 0)
(0.376385 0.311592 0)
(0.376073 0.312214 0)
(0.375761 0.312837 0)
(0.375448 0.313459 0)
(0.375134 0.314080 0)
(0.374819 0.314701 0)
(0.374504 0.315322 0)
(0.374189 0.315943 0)
(0.373873 0.316563 0)
(0.373556 0.317183 0)
(0.373238 0.317803 0)
(0.372920 0.318422 0)
(0.372601 0.319041 0)
(0.372282 0.319660 0)
(0.371962 0.320278 0)
(0.371641 0.320896 0)
(0.371320 0.321514 0)
(0.370998 0.322131 0)
(0.370676 0.322748 0)
(0.370353 0.323365 0)
(0.370029 0.323982 0)
(0.369705 0.324598 0)
(0.369380 0.325213 0)
(0.369054 0.325829 0)
(0.368728 0.326444 0)
(0.368402 0.327059 0)
(0.368074 0.327673 0)
(0.367746 0.328288 0)
(0.367418 0.328901 0)
(0.367088 0.329515 0)
(0.366759 0.330128 0)
(0.366428 0.330741 0)
(0.366097 0.331353 0)
(0.365765 0.331966 0)
(0.365433 0.332577 0)
(0.365100 0.333189 0)
(0.364767 0.333800 0)
(0.364433 0.334411 0)
(0.364098 0.335022 0)
(0.363763 0.335632 0)
(0.363427 0.336242 0)
(0.363090 0.336851 0)
(0.362753 0.337460 0)
(0.362415 0.338069 0)
(0.362077 0.338678 0)
(0.361738 0.339286 0)
(0.361398 0.339894 0)
(0.361058 0.340501 0)
(0.360717 0.341108 0)
(0.360376 0.341715 0)
(0.360034 0.342321 0)
(0.359691 0.342928 0)
(0.359348 0.343533 0)
(0.359004 0.344139 0)
(0.358660 0.344744 0)
(0.358315 0.345349 0)
(0.357969 0.345953 0)
(0.357623 0.346557 0)
(0.357276 0.347161 0)
(0.356928 0.347764 0)
(0.356580 0.348367 0)
(0.356232 0.348970 0)
(0.355882 0.349572 0)
(0.355533 0.350174 0)
(0.355182 0.350776 0)
(0.354831 0.351377 0)
(0.354479 0.351978 0)
(0.354127 0.352578 0)
(0.353774 0.353178 0)
)
polyLine 13 12 (
(0.353280 -0.354017 -0.100000)
(0.353634 -0.353417 -0.100000)
(0.353987 -0.352817 -0.100000)
(0.354339 -0.352217 -0.100000)
(0.354691 -0.351616 -0.100000)
(0.355042 -0.351015 -0.100000)
(0.355393 -0.350414 -0.100000)
(0.355743 -0.349812 -0.100000)
(0.356093 -0.349210 -0.100000)
(0.356442 -0.348607 -0.100000)
(0.356790 -0.348004 -0.100000)
(0.357138 -0.347401 -0.100000)
(0.357485 -0.346797 -0.100000)
(0.357831 -0.346193 -0.100000)
(0.358177 -0.345589 -0.100000)
(0.358522 -0.344985 -0.100000)
(0.358867 -0.344380 -0.100000)
(0.359211 -0.343774 -0.100000)
(0.359555 -0.343169 -0.100000)
(0.359898 -0.342563 -0.100000)
(0.360240 -0.341956 -0.100000)
(0.360581 -0.341350 -0.100000)
(0.360923 -0.340743 -0.100000)
(0.361263 -0.340135 -0.100000)
(0.361603 -0.339528 -0.100000)
(0.361942 -0.338920 -0.100000)
(0.362281 -0.338311 -0.100000)
(0.362619 -0.337703 -0.100000)
(0.362956 -0.337094 -0.100000)
(0.363293 -0.336484 -0.100000)
(0.363629 -0.335875 -0.100000)
(0.363965 -0.335265 -0.100000)
(0.364300 -0.334654 -0.100000)
(0.364634 -0.334043 -0.100000)
(0.364968 -0.333432 -0.100000)
(0.365301 -0.332821 -0.100000)
(0.365633 -0.332209 -0.100000)
(0.365965 -0.331597 -0.100000)
(0.366296 -0.330985 -0.100000)
(0.366627 -0.330372 -0.100000)
(0.366957 -0.329759 -0.100000)
(0.367287 -0.329146 -0.100000)
(0.367615 -0.328532 -0.100000)
(0.367944 -0.327918 -0.100000)
(0.368271 -0.327304 -0.100000)
(0.368598 -0.326689 -0.100000)
(0.368925 -0.326074 -0.100000)
(0.369250 -0.325459 -0.100000)
(0.369576 -0.324843 -0.100000)
(0.369900 -0.324227 -0.100000)
(0.370224 -0.323611 -0.100000)
(0.370547 -0.322994 -0.100000)
(0.370870 -0.322377 -0.100000)
(0.371192 -0.321760 -0.100000)
(0.371514 -0.321142 -0.100000)
(0.371834 -0.320524 -0.100000)
(0.372155 -0.319906 -0.100000)
(0.372474 -0.319287 -0.100000)
(0.372793 -0.318669 -0.100000)
(0.373112 -0.318049 -0.100000)
(0.373429 -0.317430 -0.100000)
(0.373746 -0.316810 -0.100000)
(0.374063 -0.316190 -0.100000)
(0.374379 -0.315569 -0.100000)
(0.374694 -0.314949 -0.100000)
(0.375009 -0.314327 -0.100000)
(0.375323 -0.313706 -0.100000)
(0.375636 -0.313084 -0.100000)
(0.375949 -0.312462 -0.100000)
(0.376261 -0.311840 -0.100000)
(0.376573 -0.311217 -0.100000)
(0.376883 -0.310594 -0.100000)
(0.377194 -0.309971 -0.100000)
(0.377503 -0.309347 -0.100000)
(0.377812 -0.308723 -0.100000)
(0.378121 -0.308099 -0.100000)
(0.378429 -0.307475 -0.100000)
(0.378736 -0.306850 -0.100000)
(0.379042 -0.306225 -0.100000)
(0.379348 -0.305599 -0.100000)
(0.379654 -0.304974 -0.100000)
(0.379958 -0.304347 -0.100000)
(0.380262 -0.303721 -0.100000)
(0.380566 -0.303094 -0.100000)
(0.380868 -0.302467 -0.100000)
(0.381171 -0.301840 -0.100000)
(0.381472 -0.301213 -0.100000)
(0.381773 -0.300585 -0.100000)
(0.382073 -0.299957 -0.100000)
(0.382373 -0.299328 -0.100000)
(0.382672 -0.298699 -0.100000)
(0.382970 -0.298070 -0.100000)
(0.383268 -0.297441 -0.100000)
(0.383565 -0.296811 -0.100000)
(0.383862 -0.296181 -0.100000)
(0.384158 -0.295551 -0.100000)
(0.384453 -0.294920 -0.100000)
(0.384747 -0.294290 -0.100000)
(0.385041 -0.293658 -0.100000)
(0.385335 -0.293027 -0.100000)
(0.385627 -0.292395 -0.100000)
(0.385920 -0.291763 -0.100000)
(0.386211 -0.291131 -0.100000)
(0.386502 -0.290498 -0.100000)
(0.386792 -0.289865 -0.100000)
(0.387081 -0.289232 -0.100000)
(0.387370 -0.288599 -0.100000)
(0.387659 -0.287965 -0.100000)
(0.387946 -0.287331 -0.100000)
(0.388233 -0.286697 -0.100000)
(0.388520 -0.286062 -0.100000)
(0.388805 -0.285427 -0.100000)
(0.389091 -0.284792 -0.100000)
(0.389375 -0.284156 -0.100000)
(0.389659 -0.283521 -0.100000)
(0.389942 -0.282885 -0.100000)
(0.390225 -0.282248 -0.100000)
(0.390507 -0.281612 -0.100000)
(0.390788 -0.280975 -0.100000)
(0.391069 -0.280338 -0.100000)
(0.391349 -0.279700 -0.100000)
(0.391628 -0.279062 -0.100000)
(0.391907 -0.278424 -0.100000)
(0.392185 -0.277786 -0.100000)
(0.392462 -0.277147 -0.100000)
(0.392739 -0.276509 -0.100000)
(0.393015 -0.275870 -0.100000)
(0.393291 -0.275230 -0.100000)
(0.393566 -0.274590 -0.100000)
(0.393840 -0.273950 -0.100000)
(0.394114 -0.273310 -0.100000)
(0.394387 -0.272670 -0.100000)
(0.394659 -0.272029 -0.100000)
(0.394931 -0.271388 -0.100000)
(0.395202 -0.270747 -0.100000)
(0.395472 -0.270105 -0.100000)
(0.395742 -0.269463 -0.100000)
(0.396011 -0.268821 -0.100000)
(0.396280 -0.268179 -0.100000)
(0.396547 -0.267536 -0.100000)
(0.396815 -0.266893 -0.100000)
(0.397081 -0.266250 -0.100000)
(0.397347 -0.265606 -0.100000)
(0.397612 -0.264963 -0.100000)
(0.397877 -0.264319 -0.100000)
(0.398141 -0.263674 -0.100000)
(0.398404 -0.263030 -0.100000)
(0.398667 -0.262385 -0.100000)
(0.398929 -0.261740 -0.100000)
(0.399191 -0.261095 -0.100000)
(0.399451 -0.260449 -0.100000)
(0.399712 -0.259803 -0.100000)
(0.399971 -0.259157 -0.100000)