FoamFile 
 { 
 version 2.0; 
 format ascii; 
 class dictionary; 
 object blockMeshDict; 
 } 
 convertToMeters 1;
vertices 
 (
( 70.710678 70.710678 0.000000 )
( 70.710678 -70.710678 0.000000 )
( -70.710678 -70.710678 0.000000 )
( -70.710678 70.710678 0.000000 )
( 10.605371 10.605372 0.000000 )
( 10.606600 -10.606601 0.000000 )
( -10.606601 -10.606600 0.000000 )
( -10.606447 10.606447 0.000000 )
( 70.710678 70.710678 -0.100000 )
( 70.710678 -70.710678 -0.100000 )
( -70.710678 -70.710678 -0.100000 )
( -70.710678 70.710678 -0.100000 )
( 10.605371 10.605372 -0.100000 )
( 10.606600 -10.606601 -0.100000 )
( -10.606601 -10.606600 -0.100000 )
( -10.606447 10.606447 -0.100000 )
);
blocks 
 (
hex ( 0 4 7 3 8 12 15 11 ) (12 132 1) simpleGrading (1 1 1)
hex ( 3 7 6 2 11 15 14 10 ) (12 132 1) simpleGrading (1 1 1)
hex ( 2 6 5 1 10 14 13 9 ) (12 132 1) simpleGrading (1 1 1)
hex ( 1 5 4 0 9 13 12 8 ) (12 132 1) simpleGrading (1 1 1)
hex ( 4 5 6 7 12 13 14 15 ) (132 132 1) simpleGrading (1 1 1)
);
edges 
 (
arc 0 3 (0 100.000000 0)
arc 8 11 (0 100.000000 -0.100000)
arc 3 2 (-100.000000 0 0)
arc 11 10 (-100.000000 0 -0.100000)
arc 2 1 (0 -100.000000 0)
arc 10 9 (0 -100.000000 -0.100000)
arc 1 0 (100.000000 0 0)
arc 9 8 (100.000000 0 -0.100000)
polyLine 5 4 (
(10.598395 -10.620511 0)
(10.609007 -10.602520 0)
(10.619600 -10.584518 0)
(10.630176 -10.566506 0)
(10.640733 -10.548483 0)
(10.651273 -10.530450 0)
(10.661794 -10.512405 0)
(10.672298 -10.494351 0)
(10.682783 -10.476286 0)
(10.693250 -10.458210 0)
(10.703699 -10.440124 0)
(10.714131 -10.422028 0)
(10.724544 -10.403921 0)
(10.734938 -10.385804 0)
(10.745315 -10.367676 0)
(10.755674 -10.349538 0)
(10.766014 -10.331390 0)
(10.776337 -10.313231 0)
(10.786641 -10.295062 0)
(10.796927 -10.276883 0)
(10.807194 -10.258693 0)
(10.817444 -10.240494 0)
(10.827675 -10.222283 0)
(10.837889 -10.204063 0)
(10.848084 -10.185833 0)
(10.858260 -10.167592 0)
(10.868419 -10.149341 0)
(10.878559 -10.131080 0)
(10.888681 -10.112809 0)
(10.898785 -10.094528 0)
(10.908870 -10.076236 0)
(10.918937 -10.057935 0)
(10.928986 -10.039624 0)
(10.939016 -10.021302 0)
(10.949028 -10.002970 0)
(10.959022 -9.984629 0)
(10.968998 -9.966277 0)
(10.978955 -9.947916 0)
(10.988893 -9.929545 0)
(10.998814 -9.911163 0)
(11.008716 -9.892772 0)
(11.018599 -9.874371 0)
(11.028465 -9.855960 0)
(11.038311 -9.837539 0)
(11.048140 -9.819108 0)
(11.057949 -9.800668 0)
(11.067741 -9.782217 0)
(11.077514 -9.763757 0)
(11.087268 -9.745287 0)
(11.097004 -9.726807 0)
(11.106722 -9.708318 0)
(11.116421 -9.689819 0)
(11.126102 -9.671310 0)
(11.135764 -9.652792 0)
(11.145407 -9.634264 0)
(11.155032 -9.615726 0)
(11.164639 -9.597179 0)
(11.174227 -9.578622 0)
(11.183796 -9.560055 0)
(11.193347 -9.541479 0)
(11.202879 -9.522893 0)
(11.212393 -9.504298 0)
(11.221888 -9.485694 0)
(11.231364 -9.467080 0)
(11.240822 -9.448456 0)
(11.250261 -9.429823 0)
(11.259681 -9.411180 0)
(11.269083 -9.392529 0)
(11.278466 -9.373867 0)
(11.287831 -9.355197 0)
(11.297177 -9.336517 0)
(11.306504 -9.317827 0)
(11.315812 -9.299129 0)
(11.325102 -9.280421 0)
(11.334373 -9.261703 0)
(11.343626 -9.242977 0)
(11.352859 -9.224241 0)
(11.362074 -9.205496 0)
(11.371270 -9.186742 0)
(11.380448 -9.167979 0)
(11.389606 -9.149206 0)
(11.398746 -9.130424 0)
(11.407867 -9.111634 0)
(11.416969 -9.092834 0)
(11.426053 -9.074025 0)
(11.435117 -9.055206 0)
(11.444163 -9.036379 0)
(11.453190 -9.017543 0)
(11.462198 -8.998698 0)
(11.471187 -8.979844 0)
(11.480158 -8.960981 0)
(11.489109 -8.942108 0)
(11.498042 -8.923227 0)
(11.506956 -8.904337 0)
(11.515851 -8.885438 0)
(11.524727 -8.866531 0)
(11.533584 -8.847614 0)
(11.542422 -8.828688 0)
(11.551241 -8.809754 0)
(11.560041 -8.790811 0)
(11.568823 -8.771859 0)
(11.577585 -8.752898 0)
(11.586329 -8.733929 0)
(11.595053 -8.714951 0)
(11.603758 -8.695964 0)
(11.612445 -8.676968 0)
(11.621112 -8.657964 0)
(11.629761 -8.638951 0)
(11.638390 -8.619929 0)
(11.647001 -8.600899 0)
(11.655592 -8.581860 0)
(11.664164 -8.562813 0)
(11.672718 -8.543757 0)
(11.681252 -8.524692 0)
(11.689767 -8.505619 0)
(11.698263 -8.486538 0)
(11.706740 -8.467448 0)
(11.715198 -8.448349 0)
(11.723637 -8.429243 0)
(11.732057 -8.410127 0)
(11.740457 -8.391003 0)
(11.748839 -8.371871 0)
(11.757201 -8.352731 0)
(11.765544 -8.333582 0)
(11.773868 -8.314425 0)
(11.782173 -8.295259 0)
(11.790459 -8.276085 0)
(11.798725 -8.256903 0)
(11.806972 -8.237713 0)
(11.815200 -8.218514 0)
(11.823409 -8.199307 0)
(11.831599 -8.180092 0)
(11.839770 -8.160869 0)
(11.847921 -8.141638 0)
(11.856053 -8.122398 0)
(11.864166 -8.103151 0)
(11.872259 -8.083895 0)
(11.880333 -8.064631 0)
(11.888388 -8.045359 0)
(11.896424 -8.026079 0)
(11.904441 -8.006791 0)
(11.912438 -7.987496 0)
(11.920416 -7.968192 0)
(11.928374 -7.948880 0)
(11.936313 -7.929560 0)
(11.944233 -7.910232 0)
(11.952134 -7.890896 0)
(11.960015 -7.871553 0)
(11.967877 -7.852201 0)
(11.975719 -7.832842 0)
(11.983543 -7.813475 0)
(11.991346 -7.794100 0)
(11.999131 -7.774717 0)
(12.006896 -7.755327 0)
(12.014641 -7.735928 0)
(12.022368 -7.716522 0)
(12.030074 -7.697109 0)
(12.037762 -7.677687 0)
(12.045430 -7.658258 0)
(12.053078 -7.638821 0)
(12.060707 -7.619377 0)
(12.068317 -7.599925 0)
(12.075907 -7.580465 0)
(12.083478 -7.560998 0)
(12.091029 -7.541523 0)
(12.098561 -7.522041 0)
(12.106073 -7.502551 0)
(12.113566 -7.483054 0)
(12.121039 -7.463549 0)
(12.128493 -7.444037 0)
(12.135928 -7.424517 0)
(12.143342 -7.404990 0)
(12.150737 -7.385455 0)
(12.158113 -7.365913 0)
(12.165469 -7.346364 0)
(12.172806 -7.326807 0)
(12.180123 -7.307244 0)
(12.187420 -7.287672 0)
(12.194698 -7.268094 0)
(12.201957 -7.248508 0)
(12.209195 -7.228915 0)
(12.216414 -7.209314 0)
(12.223614 -7.189707 0)
(12.230794 -7.170092 0)
(12.237954 -7.150470 0)
(12.245095 -7.130841 0)
(12.252216 -7.111205 0)
(12.259317 -7.091562 0)
(12.266399 -7.071911 0)
(12.273461 -7.052254 0)
(12.280503 -7.032590 0)
(12.287526 -7.012918 0)
(12.294529 -6.993239 0)
(12.301513 -6.973554 0)
(12.308476 -6.953861 0)
(12.315420 -6.934162 0)
(12.322345 -6.914456 0)
(12.329249 -6.894742 0)
(12.336134 -6.875022 0)
(12.342999 -6.855295 0)
(12.349845 -6.835561 0)
(12.356670 -6.815820 0)
(12.363476 -6.796073 0)
(12.370263 -6.776318 0)
(12.377029 -6.756557 0)
(12.383776 -6.736789 0)
(12.390503 -6.717015 0)
(12.397210 -6.697233 0)
(12.403897 -6.677445 0)
(12.410565 -6.657650 0)
(12.417212 -6.637849 0)
(12.423840 -6.618041 0)
(12.430448 -6.598226 0)
(12.437037 -6.578405 0)
(12.443605 -6.558577 0)
(12.450154 -6.538743 0)
(12.456683 -6.518902 0)
(12.463192 -6.499055 0)
(12.469681 -6.479201 0)
(12.476150 -6.459340 0)
(12.482599 -6.439473 0)
(12.489029 -6.419600 0)
(12.495439 -6.399720 0)
(12.501828 -6.379834 0)
(12.508198 -6.359942 0)
(12.514548 -6.340043 0)
(12.520878 -6.320137 0)
(12.527189 -6.300226 0)
(12.533479 -6.280308 0)
(12.539749 -6.260384 0)
(12.546000 -6.240454 0)
(12.552230 -6.220517 0)
(12.558441 -6.200574 0)
(12.564631 -6.180625 0)
(12.570802 -6.160670 0)
(12.576953 -6.140708 0)
(12.583083 -6.120741 0)
(12.589194 -6.100767 0)
(12.595285 -6.080788 0)
(12.601356 -6.060802 0)
(12.607406 -6.040810 0)
(12.613437 -6.020812 0)
(12.619448 -6.000808 0)
(12.625439 -5.980798 0)
(12.631410 -5.960782 0)
(12.637360 -5.940760 0)
(12.643291 -5.920732 0)
(12.649202 -5.900699 0)
(12.655093 -5.880659 0)
(12.660963 -5.860613 0)
(12.666814 -5.840562 0)
(12.672644 -5.820505 0)
(12.678455 -5.800442 0)
(12.684245 -5.780373 0)
(12.690016 -5.760298 0)
(12.695766 -5.740218 0)
(12.701496 -5.720132 0)
(12.707206 -5.700040 0)
(12.712896 -5.679942 0)
(12.718566 -5.659839 0)
(12.724216 -5.639730 0)
(12.729845 -5.619616 0)
(12.735455 -5.599495 0)
(12.741044 -5.579370 0)
(12.746614 -5.559238 0)
(12.752163 -5.539101 0)
(12.757692 -5.518959 0)
(12.763201 -5.498811 0)
(12.768690 -5.478658 0)
(12.774158 -5.458499 0)
(12.779607 -5.438334 0)
(12.785035 -5.418164 0)
(12.790443 -5.397989 0)
(12.795831 -5.377809 0)
(12.801199 -5.357622 0)
(12.806546 -5.337431 0)
(12.811873 -5.317234 0)
(12.817180 -5.297032 0)
(12.822467 -5.276825 0)
(12.827734 -5.256612 0)
(12.832981 -5.236395 0)
(12.838207 -5.216171 0)
(12.843413 -5.195943 0)
(12.848599 -5.175710 0)
(12.853764 -5.155471 0)
(12.858910 -5.135227 0)
(12.864035 -5.114978 0)
(12.869140 -5.094724 0)
(12.874224 -5.074465 0)
(12.879289 -5.054201 0)
(12.884333 -5.033931 0)
(12.889357 -5.013657 0)
(12.894360 -4.993378 0)
(12.899343 -4.973093 0)
(12.904306 -4.952804 0)
(12.909249 -4.932510 0)
(12.914171 -4.912210 0)
(12.919073 -4.891906 0)
(12.923955 -4.871597 0)
(12.928816 -4.851283 0)
(12.933658 -4.830965 0)
(12.938478 -4.810641 0)
(12.943279 -4.790313 0)
(12.948059 -4.769979 0)
(12.952819 -4.749641 0)
(12.957558 -4.729299 0)
(12.962277 -4.708951 0)
(12.966976 -4.688599 0)
(12.971655 -4.668242 0)
(12.976313 -4.647881 0)
(12.980950 -4.627515 0)
(12.985568 -4.607144 0)
(12.990165 -4.586769 0)
(12.994741 -4.566389 0)
(12.999297 -4.546004 0)
(13.003833 -4.525615 0)
(13.008349 -4.505221 0)
(13.012844 -4.484823 0)
(13.017318 -4.464421 0)
(13.021773 -4.444014 0)
(13.026206 -4.423602 0)
(13.030620 -4.403186 0)
(13.035013 -4.382766 0)
(13.039385 -4.362341 0)
(13.043737 -4.341912 0)
(13.048069 -4.321479 0)
(13.052380 -4.301041 0)
(13.056671 -4.280599 0)
(13.060942 -4.260153 0)
(13.065191 -4.239702 0)
(13.069421 -4.219247 0)
(13.073630 -4.198788 0)
(13.077819 -4.178325 0)
(13.081987 -4.157858 0)
(13.086134 -4.137386 0)
(13.090261 -4.116910 0)
(13.094368 -4.096430 0)
(13.098454 -4.075947 0)
(13.102520 -4.055459 0)
(13.106565 -4.034966 0)
(13.110590 -4.014470 0)
(13.114594 -3.993970 0)
(13.118578 -3.973466 0)
(13.122541 -3.952958 0)
(13.126484 -3.932446 0)
(13.130406 -3.911930 0)
(13.134308 -3.891410 0)
(13.138189 -3.870887 0)
(13.142049 -3.850359 0)
(13.145889 -3.829827 0)
(13.149709 -3.809292 0)
(13.153508 -3.788753 0)
(13.157287 -3.768210 0)
(13.161044 -3.747663 0)
(13.164782 -3.727113 0)
(13.168499 -3.706559 0)
(13.172195 -3.686001 0)
(13.175871 -3.665439 0)
(13.179526 -3.644874 0)
(13.183160 -3.624305 0)
(13.186774 -3.603733 0)
(13.190368 -3.583157 0)
(13.193941 -3.562577 0)
(13.197493 -3.541994 0)
(13.201025 -3.521407 0)
(13.204536 -3.500817 0)
(13.208026 -3.480223 0)
(13.211496 -3.459626 0)
(13.214946 -3.439025 0)
(13.218374 -3.418421 0)
(13.221782 -3.397813 0)
(13.225170 -3.377202 0)
(13.228537 -3.356588 0)
(13.231883 -3.335970 0)
(13.235209 -3.315349 0)
(13.238514 -3.294725 0)
(13.241798 -3.274097 0)
(13.245062 -3.253466 0)
(13.248305 -3.232832 0)
(13.251528 -3.212195 0)
(13.254730 -3.191554 0)
(13.257911 -3.170910 0)
(13.261071 -3.150263 0)
(13.264211 -3.129613 0)
(13.267331 -3.108960 0)
(13.270429 -3.088303 0)
(13.273507 -3.067644 0)
(13.276565 -3.046981 0)
(13.279601 -3.026316 0)
(13.282617 -3.005647 0)
(13.285612 -2.984976 0)
(13.288587 -2.964301 0)
(13.291541 -2.943623 0)
(13.294474 -2.922943 0)
(13.297387 -2.902259 0)
(13.300279 -2.881573 0)
(13.303150 -2.860884 0)
(13.306001 -2.840192 0)
(13.308831 -2.819497 0)
(13.311640 -2.798799 0)
(13.314428 -2.778099 0)
(13.317196 -2.757395 0)
(13.319943 -2.736689 0)
(13.322669 -2.715980 0)
(13.325375 -2.695269 0)
(13.328060 -2.674555 0)
(13.330724 -2.653838 0)
(13.333367 -2.633118 0)
(13.335990 -2.612396 0)
(13.338592 -2.591671 0)
(13.341174 -2.570944 0)
(13.343734 -2.550214 0)
(13.346274 -2.529481 0)
(13.348793 -2.508746 0)
(13.351291 -2.488009 0)
(13.353769 -2.467269 0)
(13.356226 -2.446526 0)
(13.358662 -2.425781 0)
(13.361078 -2.405034 0)
(13.363472 -2.384284 0)
(13.365846 -2.363532 0)
(13.368199 -2.342777 0)
(13.370532 -2.322020 0)
(13.372843 -2.301261 0)
(13.375134 -2.280500 0)
(13.377404 -2.259736 0)
(13.379654 -2.238970 0)
(13.381882 -2.218202 0)
(13.384090 -2.197431 0)
(13.386277 -2.176658 0)
(13.388443 -2.155884 0)
(13.390589 -2.135107 0)
(13.392714 -2.114327 0)
(13.394818 -2.093546 0)
(13.396901 -2.072763 0)
(13.398963 -2.051977 0)
(13.401005 -2.031190 0)
(13.403025 -2.010400 0)
(13.405025 -1.989609 0)
(13.407005 -1.968815 0)
(13.408963 -1.948020 0)
(13.410901 -1.927222 0)
(13.412818 -1.906423 0)
(13.414714 -1.885622 0)
(13.416589 -1.864818 0)
(13.418443 -1.844013 0)
(13.420277 -1.823207 0)
(13.422090 -1.802398 0)
(13.423882 -1.781587 0)
(13.425653 -1.760775 0)
(13.427403 -1.739961 0)
(13.429133 -1.719145 0)
(13.430841 -1.698328 0)
(13.432529 -1.677509 0)
(13.434196 -1.656688 0)
(13.435843 -1.635865 0)
(13.437468 -1.615041 0)
(13.439073 -1.594215 0)
(13.440657 -1.573388 0)
(13.442220 -1.552559 0)
(13.443762 -1.531728 0)
(13.445283 -1.510896 0)
(13.446784 -1.490063 0)
(13.448263 -1.469228 0)
(13.449722 -1.448391 0)
(13.451160 -1.427553 0)
(13.452577 -1.406714 0)
(13.453973 -1.385873 0)
(13.455349 -1.365031 0)
(13.456703 -1.344188 0)
(13.458037 -1.323343 0)
(13.459350 -1.302496 0)
(13.460642 -1.281649 0)
(13.461913 -1.260800 0)
(13.463164 -1.239950 0)
(13.464393 -1.219099 0)
(13.465602 -1.198246 0)
(13.466790 -1.177393 0)
(13.467957 -1.156538 0)
(13.469103 -1.135682 0)
(13.470228 -1.114825 0)
(13.471333 -1.093966 0)
(13.472416 -1.073107 0)
(13.473479 -1.052246 0)
(13.474521 -1.031385 0)
(13.475542 -1.010522 0)
(13.476542 -0.989659 0)
(13.477521 -0.968794 0)
(13.478479 -0.947929 0)
(13.479417 -0.927062 0)
(13.480333 -0.906195 0)
(13.481229 -0.885327 0)
(13.482104 -0.864457 0)
(13.482958 -0.843587 0)
(13.483791 -0.822717 0)
(13.484603 -0.801845 0)
(13.485395 -0.780972 0)
(13.486165 -0.760099 0)
(13.486915 -0.739225 0)
(13.487644 -0.718350 0)
(13.488352 -0.697475 0)
(13.489039 -0.676598 0)
(13.489705 -0.655722 0)
(13.490350 -0.634844 0)
(13.490975 -0.613966 0)
(13.491578 -0.593087 0)
(13.492161 -0.572208 0)
(13.492723 -0.551328 0)
(13.493263 -0.530447 0)
(13.493783 -0.509566 0)
(13.494283 -0.488685 0)
(13.494761 -0.467803 0)
(13.495218 -0.446920 0)
(13.495655 -0.426037 0)
(13.496070 -0.405154 0)
(13.496465 -0.384270 0)
(13.496839 -0.363386 0)
(13.497192 -0.342501 0)
(13.497524 -0.321617 0)
(13.497835 -0.300731 0)
(13.498125 -0.279846 0)
(13.498395 -0.258960 0)
(13.498643 -0.238074 0)
(13.498871 -0.217188 0)
(13.499078 -0.196301 0)
(13.499263 -0.175415 0)
(13.499428 -0.154528 0)
(13.499572 -0.133641 0)
(13.499696 -0.112754 0)
(13.499798 -0.091866 0)
(13.499879 -0.070979 0)
(13.499940 -0.050092 0)
(13.499980 -0.029204 0)
(13.499998 -0.008317 0)
(13.500000 0.000000 0)
(13.499990 0.020888 0)
(13.499958 0.041775 0)
(13.499906 0.062662 0)
(13.499833 0.083550 0)
(13.499739 0.104437 0)
(13.499624 0.125324 0)
(13.499488 0.146211 0)
(13.499332 0.167098 0)
(13.499154 0.187985 0)
(13.498956 0.208872 0)
(13.498736 0.229758 0)
(13.498496 0.250644 0)
(13.498235 0.271530 0)
(13.497953 0.292416 0)
(13.497650 0.313301 0)
(13.497326 0.334186 0)
(13.496982 0.355071 0)
(13.496616 0.375955 0)
(13.496230 0.396839 0)
(13.495823 0.417722 0)
(13.495394 0.438605 0)
(13.494945 0.459488 0)
(13.494475 0.480370 0)
(13.493985 0.501252 0)
(13.493473 0.522133 0)
(13.492940 0.543014 0)
(13.492387 0.563894 0)
(13.491813 0.584774 0)
(13.491217 0.605653 0)
(13.490601 0.626531 0)
(13.489964 0.647409 0)
(13.489307 0.668286 0)
(13.488628 0.689163 0)
(13.487928 0.710038 0)
(13.487208 0.730913 0)
(13.486466 0.751788 0)
(13.485704 0.772661 0)
(13.484921 0.793534 0)
(13.484117 0.814406 0)
(13.483292 0.835277 0)
(13.482447 0.856148 0)
(13.481580 0.877017 0)
(13.480692 0.897886 0)
(13.479784 0.918754 0)
(13.478855 0.939621 0)
(13.477905 0.960487 0)
(13.476934 0.981351 0)
(13.475942 1.002215 0)
(13.474930 1.023078 0)
(13.473896 1.043940 0)
(13.472842 1.064801 0)
(13.471766 1.085661 0)
(13.470670 1.106520 0)
(13.469553 1.127377 0)
(13.468416 1.148234 0)
(13.467257 1.169089 0)
(13.466077 1.189943 0)
(13.464877 1.210796 0)
(13.463656 1.231648 0)
(13.462414 1.252499 0)
(13.461151 1.273348 0)
(13.459867 1.294196 0)
(13.458562 1.315043 0)
(13.457237 1.335888 0)
(13.455891 1.356732 0)
(13.454524 1.377575 0)
(13.453136 1.398416 0)
(13.451727 1.419256 0)
(13.450297 1.440095 0)
(13.448847 1.460932 0)
(13.447375 1.481767 0)
(13.445883 1.502601 0)
(13.444370 1.523434 0)
(13.442836 1.544265 0)
(13.441281 1.565095 0)
(13.439706 1.585923 0)
(13.438110 1.606749 0)
(13.436492 1.627574 0)
(13.434854 1.648397 0)
(13.433196 1.669219 0)
(13.431516 1.690039 0)
(13.429816 1.710857 0)
(13.428094 1.731673 0)
(13.426352 1.752488 0)
(13.424589 1.773301 0)
(13.422806 1.794112 0)
(13.421001 1.814922 0)
(13.419176 1.835729 0)
(13.417330 1.856535 0)
(13.415463 1.877339 0)
(13.413575 1.898141 0)
(13.411666 1.918941 0)
(13.409737 1.939739 0)
(13.407787 1.960535 0)
(13.405816 1.981330 0)
(13.403824 2.002122 0)
(13.401812 2.022912 0)
(13.399778 2.043701 0)
(13.397724 2.064487 0)
(13.395649 2.085271 0)
(13.393554 2.106053 0)
(13.391437 2.126833 0)
(13.389300 2.147611 0)
(13.387142 2.168387 0)
(13.384963 2.189160 0)
(13.382764 2.209932 0)
(13.380544 2.230701 0)
(13.378302 2.251468 0)
(13.376041 2.272233 0)
(13.373758 2.292995 0)
(13.371455 2.313755 0)
(13.369130 2.334513 0)
(13.366786 2.355268 0)
(13.364420 2.376022 0)
(13.362034 2.396772 0)
(13.359626 2.417521 0)
(13.357198 2.438267 0)
(13.354750 2.459010 0)
(13.352280 2.479751 0)
(13.349790 2.500490 0)
(13.347279 2.521226 0)
(13.344748 2.541959 0)
(13.342196 2.562690 0)
(13.339623 2.583419 0)
(13.337029 2.604144 0)
(13.334414 2.624868 0)
(13.331779 2.645588 0)
(13.329123 2.666306 0)
(13.326446 2.687021 0)
(13.323749 2.707734 0)
(13.321031 2.728444 0)
(13.318292 2.749151 0)
(13.315533 2.769856 0)
(13.312752 2.790557 0)
(13.309951 2.811256 0)
(13.307130 2.831952 0)
(13.304288 2.852645 0)
(13.301425 2.873336 0)
(13.298541 2.894023 0)
(13.295637 2.914708 0)
(13.292712 2.935389 0)
(13.289766 2.956068 0)
(13.286799 2.976744 0)
(13.283812 2.997417 0)
(13.280805 3.018087 0)
(13.277776 3.038753 0)
(13.274727 3.059417 0)
(13.271657 3.080078 0)
(13.268567 3.100736 0)
(13.265456 3.121390 0)
(13.262324 3.142041 0)
(13.259172 3.162690 0)
(13.255999 3.183335 0)
(13.252805 3.203977 0)
(13.249591 3.224615 0)
(13.246356 3.245251 0)
(13.243100 3.265883 0)
(13.239824 3.286512 0)
(13.236527 3.307138 0)
(13.233210 3.327760 0)
(13.229872 3.348379 0)
(13.226513 3.368995 0)
(13.223134 3.389607 0)
(13.219734 3.410216 0)
(13.216313 3.430822 0)
(13.212872 3.451424 0)
(13.209410 3.472022 0)
(13.205928 3.492618 0)
(13.202425 3.513209 0)
(13.198902 3.533797 0)
(13.195358 3.554382 0)
(13.191793 3.574963 0)
(13.188208 3.595541 0)
(13.184602 3.616115 0)
(13.180975 3.636685 0)
(13.177329 3.657252 0)
(13.173661 3.677815 0)
(13.169973 3.698374 0)
(13.166264 3.718930 0)
(13.162535 3.739481 0)
(13.158785 3.760030 0)
(13.155015 3.780574 0)
(13.151224 3.801115 0)
(13.147413 3.821651 0)
(13.143581 3.842185 0)
(13.139728 3.862714 0)
(13.135855 3.883239 0)
(13.131962 3.903760 0)
(13.128048 3.924278 0)
(13.124113 3.944791 0)
(13.120158 3.965301 0)
(13.116183 3.985807 0)
(13.112187 4.006309 0)
(13.108170 4.026806 0)
(13.104133 4.047300 0)
(13.100076 4.067789 0)
(13.095997 4.088275 0)
(13.091899 4.108756 0)
(13.087780 4.129234 0)
(13.083641 4.149707 0)
(13.079481 4.170176 0)
(13.075300 4.190641 0)
(13.071099 4.211102 0)
(13.066878 4.231558 0)
(13.062636 4.252010 0)
(13.058374 4.272458 0)
(13.054091 4.292902 0)
(13.049788 4.313342 0)
(13.045465 4.333777 0)
(13.041121 4.354208 0)
(13.036756 4.374634 0)
(13.032371 4.395056 0)
(13.027966 4.415474 0)
(13.023540 4.435887 0)
(13.019094 4.456296 0)
(13.014628 4.476700 0)
(13.010141 4.497100 0)
(13.005634 4.517496 0)
(13.001106 4.537886 0)
(12.996558 4.558273 0)
(12.991989 4.578655 0)
(12.987400 4.599032 0)
(12.982791 4.619404 0)
(12.978162 4.639772 0)
(12.973512 4.660136 0)
(12.968841 4.680494 0)
(12.964151 4.700848 0)
(12.959440 4.721198 0)
(12.954708 4.741542 0)
(12.949957 4.761882 0)
(12.945185 4.782217 0)
(12.940392 4.802547 0)
(12.935579 4.822873 0)
(12.930746 4.843194 0)
(12.925893 4.863509 0)
(12.921019 4.883820 0)
(12.916125 4.904127 0)
(12.911211 4.924428 0)
(12.906277 4.944724 0)
(12.901322 4.965015 0)
(12.896347 4.985302 0)
(12.891351 5.005583 0)
(12.886335 5.025859 0)
(12.881299 5.046131 0)
(12.876243 5.066397 0)
(12.871167 5.086658 0)
(12.866070 5.106914 0)
(12.860953 5.127165 0)
(12.855816 5.147411 0)
(12.850658 5.167652 0)
(12.845480 5.187888 0)
(12.840282 5.208118 0)
(12.835064 5.228343 0)
(12.829826 5.248563 0)
(12.824567 5.268778 0)
(12.819288 5.288987 0)
(12.813989 5.309191 0)
(12.808670 5.329390 0)
(12.803330 5.349584 0)
(12.797970 5.369772 0)
(12.792591 5.389955 0)
(12.787191 5.410132 0)
(12.781770 5.430304 0)
(12.776330 5.450471 0)
(12.770869 5.470632 0)
(12.765389 5.490787 0)
(12.759888 5.510937 0)
(12.754367 5.531082 0)
(12.748826 5.551221 0)
(12.743264 5.571355 0)
(12.737683 5.591483 0)
(12.732081 5.611605 0)
(12.726460 5.631722 0)
(12.720818 5.651833 0)
(12.715156 5.671939 0)
(12.709474 5.692038 0)
(12.703772 5.712132 0)
(12.698050 5.732221 0)
(12.692308 5.752304 0)
(12.686545 5.772381 0)
(12.680763 5.792452 0)
(12.674960 5.812517 0)
(12.669138 5.832577 0)
(12.663295 5.852630 0)
(12.657432 5.872678 0)
(12.651550 5.892720 0)
(12.645647 5.912756 0)
(12.639724 5.932787 0)
(12.633781 5.952811 0)
(12.627819 5.972829 0)
(12.621836 5.992841 0)
(12.615833 6.012848 0)
(12.609810 6.032848 0)
(12.603767 6.052842 0)
(12.597704 6.072831 0)
(12.591622 6.092813 0)
(12.585519 6.112789 0)
(12.579396 6.132759 0)
(12.573253 6.152723 0)
(12.567091 6.172680 0)
(12.560908 6.192632 0)
(12.554705 6.212577 0)
(12.548483 6.232516 0)
(12.542240 6.252449 0)
(12.535978 6.272376 0)
(12.529696 6.292296 0)
(12.523393 6.312210 0)
(12.517071 6.332118 0)
(12.510729 6.352019 0)
(12.504367 6.371914 0)
(12.497985 6.391803 0)
(12.491584 6.411685 0)
(12.485162 6.431561 0)
(12.478720 6.451431 0)
(12.472259 6.471294 0)
(12.465778 6.491150 0)
(12.459277 6.511000 0)
(12.452756 6.530844 0)
(12.446215 6.550681 0)
(12.439654 6.570511 0)
(12.433074 6.590335 0)
(12.426474 6.610152 0)
(12.419854 6.629963 0)
(12.413214 6.649767 0)
(12.406554 6.669564 0)
(12.399875 6.689355 0)
(12.393175 6.709139 0)
(12.386456 6.728917 0)
(12.379718 6.748687 0)
(12.372959 6.768451 0)
(12.366181 6.788208 0)
(12.359383 6.807958 0)
(12.352565 6.827702 0)
(12.345727 6.847439 0)
(12.338870 6.867168 0)
(12.331993 6.886891 0)
(12.325096 6.906607 0)
(12.318180 6.926316 0)
(12.311244 6.946019 0)
(12.304288 6.965714 0)
(12.297312 6.985402 0)
(12.290317 7.005084 0)
(12.283302 7.024758 0)
(12.276267 7.044425 0)
(12.269213 7.064085 0)
(12.262139 7.083739 0)
(12.255046 7.103385 0)
(12.247932 7.123024 0)
(12.240800 7.142656 0)
(12.233647 7.162280 0)
(12.226475 7.181898 0)
(12.219283 7.201508 0)
(12.212072 7.221111 0)
(12.204841 7.240707 0)
(12.197591 7.260296 0)
(12.190321 7.279878 0)
(12.183031 7.299452 0)
(12.175722 7.319019 0)
(12.168393 7.338578 0)
(12.161044 7.358131 0)
(12.153677 7.377675 0)
(12.146289 7.397213 0)
(12.138882 7.416743 0)
(12.131456 7.436266 0)
(12.124010 7.455781 0)
(12.116544 7.475289 0)
(12.109059 7.494789 0)
(12.101554 7.514282 0)
(12.094030 7.533767 0)
(12.086487 7.553245 0)
(12.078924 7.572715 0)
(12.071342 7.592178 0)
(12.063740 7.611633 0)
(12.056118 7.631080 0)
(12.048477 7.650520 0)
(12.040817 7.669952 0)
(12.033138 7.689377 0)
(12.025438 7.708793 0)
(12.017720 7.728203 0)
(12.009982 7.747604 0)
(12.002225 7.766998 0)
(11.994448 7.786383 0)
(11.986652 7.805761 0)
(11.978837 7.825132 0)
(11.971002 7.844494 0)
(11.963148 7.863849 0)
(11.955274 7.883195 0)
(11.947381 7.902534 0)
(11.939469 7.921865 0)
(11.931537 7.941188 0)
(11.923587 7.960503 0)
(11.915616 7.979810 0)
(11.907627 7.999109 0)
(11.899618 8.018401 0)
(11.891590 8.037684 0)
(11.883543 8.056959 0)
(11.875476 8.076226 0)
(11.867390 8.095485 0)
(11.859285 8.114736 0)
(11.851161 8.133978 0)
(11.843017 8.153213 0)
(11.834855 8.172439 0)
(11.826672 8.191658 0)
(11.818471 8.210868 0)
(11.810251 8.230070 0)
(11.802011 8.249263 0)
(11.793752 8.268449 0)
(11.785474 8.287626 0)
(11.777177 8.306795 0)
(11.768861 8.325955 0)
(11.760525 8.345107 0)
(11.752170 8.364251 0)
(11.743797 8.383387 0)
(11.735404 8.402514 0)
(11.726992 8.421632 0)
(11.718560 8.440743 0)
(11.710110 8.459845 0)
(11.701641 8.478938 0)
(11.693152 8.498023 0)
(11.684645 8.517099 0)
(11.676118 8.536167 0)
(11.667572 8.555227 0)
(11.659008 8.574277 0)
(11.650424 8.593320 0)
(11.641821 8.612353 0)
(11.633199 8.631378 0)
(11.624558 8.650395 0)
(11.615898 8.669402 0)
(11.607219 8.688401 0)
(11.598521 8.707392 0)
(11.589805 8.726373 0)
(11.581069 8.745346 0)
(11.572314 8.764311 0)
(11.563540 8.783266 0)
(11.554747 8.802213 0)
(11.545936 8.821151 0)
(11.537105 8.840080 0)
(11.528256 8.859000 0)
(11.519387 8.877911 0)
(11.510500 8.896814 0)
(11.501593 8.915707 0)
(11.492668 8.934592 0)
(11.483724 8.953467 0)
(11.474761 8.972334 0)
(11.465780 8.991192 0)
(11.456779 9.010041 0)
(11.447760 9.028881 0)
(11.438721 9.047711 0)
(11.429664 9.066533 0)
(11.420588 9.085346 0)
(11.411493 9.104149 0)
(11.402380 9.122944 0)
(11.393248 9.141729 0)
(11.384096 9.160505 0)
(11.374927 9.179272 0)
(11.365738 9.198030 0)
(11.356530 9.216779 0)
(11.347304 9.235518 0)
(11.338059 9.254248 0)
(11.328796 9.272969 0)
(11.319513 9.291681 0)
(11.310212 9.310383 0)
(11.300893 9.329076 0)
(11.291554 9.347760 0)
(11.282197 9.366434 0)
(11.272821 9.385099 0)
(11.263427 9.403755 0)
(11.254014 9.422401 0)
(11.244582 9.441038 0)
(11.235132 9.459665 0)
(11.225663 9.478283 0)
(11.216175 9.496892 0)
(11.206669 9.515491 0)
(11.197144 9.534080 0)
(11.187601 9.552660 0)
(11.178039 9.571230 0)
(11.168458 9.589791 0)
(11.158859 9.608342 0)
(11.149242 9.626884 0)
(11.139606 9.645416 0)
(11.129951 9.663938 0)
(11.120278 9.682451 0)
(11.110586 9.700954 0)
(11.100876 9.719447 0)
(11.091147 9.737930 0)
(11.081400 9.756404 0)
(11.071634 9.774868 0)
(11.061850 9.793322 0)
(11.052048 9.811767 0)
(11.042227 9.830202 0)
(11.032387 9.848626 0)
(11.022530 9.867041 0)
(11.012653 9.885446 0)
(11.002759 9.903842 0)
(10.992846 9.922227 0)
(10.982914 9.940602 0)
(10.972964 9.958968 0)
(10.962996 9.977323 0)
(10.953010 9.995669 0)
(10.943005 10.014004 0)
(10.932982 10.032330 0)
(10.922940 10.050645 0)
(10.912880 10.068951 0)
(10.902802 10.087246 0)
(10.892706 10.105531 0)
(10.882591 10.123806 0)
(10.872458 10.142071 0)
(10.862307 10.160326 0)
(10.852138 10.178571 0)
(10.841950 10.196806 0)
(10.831744 10.215030 0)
(10.821520 10.233244 0)
(10.811278 10.251448 0)
(10.801017 10.269642 0)
(10.790738 10.287825 0)
(10.780441 10.305998 0)
(10.770126 10.324161 0)
(10.759793 10.342313 0)
(10.749442 10.360456 0)
(10.739072 10.378587 0)
(10.728685 10.396709 0)
(10.718279 10.414820 0)
(10.707855 10.432920 0)
(10.697413 10.451010 0)
(10.686953 10.469090 0)
(10.676475 10.487159 0)
(10.665979 10.505218 0)
(10.655464 10.523266 0)
(10.644932 10.541304 0)
(10.634382 10.559331 0)
(10.623813 10.577348 0)
(10.613227 10.595354 0)
)
polyLine 13 12 (
(10.598395 -10.620511 -0.100000)
(10.609007 -10.602520 -0.100000)
(10.619600 -10.584518 -0.100000)
(10.630176 -10.566506 -0.100000)
(10.640733 -10.548483 -0.100000)
(10.651273 -10.530450 -0.100000)
(10.661794 -10.512405 -0.100000)
(10.672298 -10.494351 -0.100000)
(10.682783 -10.476286 -0.100000)
(10.693250 -10.458210 -0.100000)
(10.703699 -10.440124 -0.100000)
(10.714131 -10.422028 -0.100000)
(10.724544 -10.403921 -0.100000)
(10.734938 -10.385804 -0.100000)
(10.745315 -10.367676 -0.100000)
(10.755674 -10.349538 -0.100000)
(10.766014 -10.331390 -0.100000)
(10.776337 -10.313231 -0.100000)
(10.786641 -10.295062 -0.100000)
(10.796927 -10.276883 -0.100000)
(10.807194 -10.258693 -0.100000)
(10.817444 -10.240494 -0.100000)
(10.827675 -10.222283 -0.100000)
(10.837889 -10.204063 -0.100000)
(10.848084 -10.185833 -0.100000)
(10.858260 -10.167592 -0.100000)
(10.868419 -10.149341 -0.100000)
(10.878559 -10.131080 -0.100000)
(10.888681 -10.112809 -0.100000)
(10.898785 -10.094528 -0.100000)
(10.908870 -10.076236 -0.100000)
(10.918937 -10.057935 -0.100000)
(10.928986 -10.039624 -0.100000)
(10.939016 -10.021302 -0.100000)
(10.949028 -10.002970 -0.100000)
(10.959022 -9.984629 -0.100000)
(10.968998 -9.966277 -0.100000)
(10.978955 -9.947916 -0.100000)
(10.988893 -9.929545 -0.100000)
(10.998814 -9.911163 -0.100000)
(11.008716 -9.892772 -0.100000)
(11.018599 -9.874371 -0.100000)
(11.028465 -9.855960 -0.100000)
(11.038311 -9.837539 -0.100000)
(11.048140 -9.819108 -0.100000)
(11.057949 -9.800668 -0.100000)
(11.067741 -9.782217 -0.100000)
(11.077514 -9.763757 -0.100000)
(11.087268 -9.745287 -0.100000)
(11.097004 -9.726807 -0.100000)
(11.106722 -9.708318 -0.100000)
(11.116421 -9.689819 -0.100000)
(11.126102 -9.671310 -0.100000)
(11.135764 -9.652792 -0.100000)
(11.145407 -9.634264 -0.100000)
(11.155032 -9.615726 -0.100000)
(11.164639 -9.597179 -0.100000)
(11.174227 -9.578622 -0.100000)
(11.183796 -9.560055 -0.100000)
(11.193347 -9.541479 -0.100000)
(11.202879 -9.522893 -0.100000)
(11.212393 -9.504298 -0.100000)
(11.221888 -9.485694 -0.100000)
(11.231364 -9.467080 -0.100000)
(11.240822 -9.448456 -0.100000)
(11.250261 -9.429823 -0.100000)
(11.259681 -9.411180 -0.100000)
(11.269083 -9.392529 -0.100000)
(11.278466 -9.373867 -0.100000)
(11.287831 -9.355197 -0.100000)
(11.297177 -9.336517 -0.100000)
(11.306504 -9.317827 -0.100000)
(11.315812 -9.299129 -0.100000)
(11.325102 -9.280421 -0.100000)
(11.334373 -9.261703 -0.100000)
(11.343626 -9.242977 -0.100000)
(11.352859 -9.224241 -0.100000)
(11.362074 -9.205496 -0.100000)
(11.371270 -9.186742 -0.100000)
(11.380448 -9.167979 -0.100000)
(11.389606 -9.149206 -0.100000)
(11.398746 -9.130424 -0.100000)
(11.407867 -9.111634 -0.100000)
(11.416969 -9.092834 -0.100000)
(11.426053 -9.074025 -0.100000)
(11.435117 -9.055206 -0.100000)
(11.444163 -9.036379 -0.100000)
(11.453190 -9.017543 -0.100000)
(11.462198 -8.998698 -0.100000)
(11.471187 -8.979844 -0.100000)
(11.480158 -8.960981 -0.100000)
(11.489109 -8.942108 -0.100000)
(11.498042 -8.923227 -0.100000)
(11.506956 -8.904337 -0.100000)
(11.515851 -8.885438 -0.100000)
(11.524727 -8.866531 -0.100000)
(11.533584 -8.847614 -0.100000)
(11.542422 -8.828688 -0.100000)
(11.551241 -8.809754 -0.100000)
(11.560041 -8.790811 -0.100000)
(11.568823 -8.771859 -0.100000)
(11.577585 -8.752898 -0.100000)
(11.586329 -8.733929 -0.100000)
(11.595053 -8.714951 -0.100000)
(11.603758 -8.695964 -0.100000)
(11.612445 -8.676968 -0.100000)
(11.621112 -8.657964 -0.100000)
(11.629761 -8.638951 -0.100000)
(11.638390 -8.619929 -0.100000)
(11.647001 -8.600899 -0.100000)